mvpmarch-behavior/feederdata/p1uhs0_1247--p1udt104/Loads_XZ2_result.dss
!  This code is generated by Xinyang with only primary. 

New Load.TR(R:P1UDT1-P1UDT1LV) Bus1= P1UDT1.1.2.3 Phase=3 Conn=Wye Model=1 kV=7.2 kW=222.4098855080523 kvar=0
New Load.TR(R:P1UDT2-P1UDT2LV) Bus1= P1UDT2.2 Phase=1 Conn=Wye Model=1 kV=7.2 kW=0 kvar=0
New Load.TR(R:P1UDT61-P1UDT61LV) Bus1= P1UDT61.1.2.3 Phase=3 Conn=Wye Model=1 kV=7.2 kW=2052.809887297235 kvar=0
New Load.TR(R:P1UDT62-P1UDT62LV) Bus1= P1UDT62.1.2.3 Phase=3 Conn=Wye Model=1 kV=7.2 kW=149.6098916783419 kvar=0
New Load.TR(R:P1UDT104-P1UDT104LV) Bus1= P1UDT104.1 Phase=1 Conn=Wye Model=1 kV=7.2 kW=0 kvar=0
New Load.TR(R:P1UDT175-P1UDT175LV) Bus1= P1UDT175.1.2.3 Phase=3 Conn=Wye Model=1 kV=7.2 kW=1223.3198720051737 kvar=0
New Load.TR(R:P1UDT201-P1UDT201LV) Bus1= P1UDT201.1.2.3 Phase=3 Conn=Wye Model=1 kV=7.2 kW=642.1583329129257 kvar=0
New Load.TR(R:P1UDT228-P1UDT228LV) Bus1= P1UDT228.1.2.3 Phase=3 Conn=Wye Model=1 kV=7.2 kW=2026.2638264048721 kvar=0
New Load.TR(R:P1UDT258-P1UDT258LV) Bus1= P1UDT258.1.2.3 Phase=3 Conn=Wye Model=1 kV=7.2 kW=64.80988517146716 kvar=0
New Load.TR(R:P1UDT259-P1UDT259LV) Bus1= P1UDT259.1.2.3 Phase=3 Conn=Wye Model=1 kV=7.2 kW=135.20988491798298 kvar=0
New Load.TR(R:P1UDT454-P1UDT454LV) Bus1= P1UDT454.1.2.3 Phase=3 Conn=Wye Model=1 kV=7.2 kW=1959.269159045797 kvar=0
New Load.TR(R:P1UDT471-P1UDT471LV) Bus1= P1UDT471.2 Phase=1 Conn=Wye Model=1 kV=7.2 kW=0 kvar=0
